.MODEL BC559B PNP(IS=5.826E-14 ISE=3.884f ISC=4.014E-14 XTI=3 BF=516.7 BR=12.45 IKF=0.08039 IKR=0.07238 XTB=1.5 VAF=26.03 VAR=6.717 VJE=0.3809 VJC=0.5897 RE=0.5685 RC=0.6257 RB=1 RBM=1 IRB=1E-06 CJE=1.26E-11 CJC=7.798p XCJC=0.6288 FC=0.5729 NF=1.009 NR=1.006 NE=1.408 NC=1.313 MJE=0.3545 MJC=0.4569 TF=5.233E-10 TR=1m2 ITF=0.1896 VTF=5.425 XTF=4.339 EG=1.11 VCEO=45 ICRATING=100M MFG=PHILIPS)