.SUBCKT CONN_3PIN 1 2 3
R1 1 2 1e12
R2 1 3 1e12
.ENDS CONN_3PIN
