.SUBCKT CONN_2PIN 1 2
R1 1 2 1e12
.ENDS CONN_2PIN