.SUBCKT AUDIOJACK_STEREO S TN T RN R
R1 S TN 1e12
R2 S T 1e12
R3 S RN 1e12
R4 S R 1e12
.ENDS AUDIOJACK_STEREO