.SUBCKT CONN_8PIN 1 2 3 4 5 6 7 8
R1 1 2 1e12
R2 1 3 1e12
R3 1 4 1e12
R4 1 5 1e12
R5 1 6 1e12
R6 1 7 1e12
R7 1 8 1e12
.ENDS CONN_8PIN