*IR LED: Vf=1.2V @10mA
.model LED_IR D (IS=1p N=1.999644 RS=0 BV=6 IBV=10u
+ CJO=10p EG=1.424 TT=500n)

*RED GaAs LED: Vf=1.7V Vr=4V If=40mA trr=3uS
.MODEL LED_RED D (IS=93.2P RS=42M N=3.73 BV=4 IBV=10U
+ CJO=2.97P VJ=.75 M=.333 TT=4.32U)

*RED,GREEN,YELLOW,AMBER GaAs LED: Vf=2.1V Vr=4V If=40mA trr=3uS
.MODEL LED_GRN_YEL D (IS=93.1P RS=42M N=4.61 BV=4 IBV=10U
+ CJO=2.97P VJ=.75 M=.333 TT=4.32U)

*BLUE SiC LED: Vf=3.4V Vr=5V If=40mA trr=3uS
.MODEL LED_BLUE D (IS=93.1P RS=42M N=7.47 BV=5 IBV=30U
+ CJO=2.97P VJ=.75 M=.333 TT=4.32U)
